#define DLAY 
#define FARM 
DEFAULTS                                                              PRECISIO
BEAM           -0.48                         -0.88      -2.5          PROTON
BEAMPOS         100.       0.0       0.0   -.96126   0.27564
USERWEIG                              1.
USRBIN           10.   NEUTRON      -24.      100.      100.      110.nfast
USRBIN         -100.     -100.      -30.      100.      100.       70. &
USRBIN           10.   NEUTRON      -24.      100.      100.      110.n300K
USRBIN         -100.     -100.      -30.      100.      100.       70. &
USRBIN           10.   NEUTRON      -24.      100.      100.      110.n80K
USRBIN         -100.     -100.      -30.      100.      100.       70. &
USRBIN           10.   NEUTRON      -24.      100.      100.      110.ncold
USRBIN         -100.     -100.      -30.      100.      100.       70. &
USRBIN           10.    ENERGY      -24.      100.      100.      110.energydep
USRBIN         -100.     -100.      -30.      100.      100.       70. &
USRTRACK          1.   NEUTRON      -21.      HEII                200.HeIInflux
USRTRACK     100E-12       0.0                                         &
SCORE         ENERGY
#if FARM 
RANDOMIZ          1.    MYSEED
START         10000.
#else  
RANDOMIZ          1.        8.
START        250000.
#endif  
#if DLAY 
RADDECAY          1.                  1.
* Comment dt = 3600*24*365*8/12 = 8 months; 1 microAmp p/s
IRRPROFI   21024000.  .6242E13
* Comment t2) 1 day; t3) 1 week; t4) 4 weeks; t5) 8 weeks; t6) 1 yr.
DCYTIMES         0.0    86400.   604800.  2419200.  4838400. 31536000.
* Comment t1) 20 yrs
DCYTIMES    6.3072E8
DCYSCORE          1.                     DecayEDep DecayEDep          USRBIN
USRBIN           12.    ENERGY      -22.  @LASTREG                    DecayEDep
USRBIN       TgtShld                                                   &
RESNUCLE          3.      -23.                        BOTTLE          HeBtleAct
#endif  
#include target.inp
GEOBEGIN                                                              COMBNAME
    0    0          
RPP stshld     -121. 150. -150. 150. -50. 250.
SPH blkhole    0.0 0.0 100. 300.
RPP LND        69.5 79.5 -16.3 -6.3 101.5 111.5
END
STSHIELD     5 +stshld -TARGET   -CRYOSTAT
BLKHOLE      5 blkhole -stshld
LND          5 +LND
END
GEOEND
ROT-DEFI                                       23.       -4.      26.6cryotrafo
#include verticalcryostat.inp
MATERIAL         19.               0.862                              POTASSIU
MATERIAL         16.                  2.                              SULFUR
MATERIAL         25.                7.44                              MANGANES
MATERIAL         24.                7.18                              CHROMIUM
MATERIAL         15.                1.82                              PHOSPHO
MATERIAL          5.                2.37                              BORON
MATERIAL          2.           0.1786E-3                              HELIUM
MATERIAL         17.            .0029947                              CHLORINE
MATERIAL         55.               1.873                              CESIUM
MATERIAL         27.                 8.9                              COBALT
MATERIAL         63.               5.243                              EUROPIUM
MATERIAL                            2.30                              CONCRETE
COMPOUND     .304245  HYDROGEN    .00287    CARBON   .498628    OXYGENCONCRETE
COMPOUND     .009179    SODIUM   7.17E-4  MAGNESIU   .010261  ALUMINUMCONCRETE
COMPOUND    0.150505   SILICON   .007114  POTASSIU   .014882   CALCIUMCONCRETE
COMPOUND     .001599      IRON                                        CONCRETE
MATERIAL                              4.                              HEMACONC
COMPOUND      -62.13      IRON     -1.76   SILICON     -0.58  ALUMINUMHEMACONC
COMPOUND       -5.54   CALCIUM     -0.49  MAGNESIU     -0.03    SODIUMHEMACONC
COMPOUND       -0.07  POTASSIU     -0.15    SULFUR     -0.04  MANGANESHEMACONC
COMPOUND        -0.6    CARBON     -0.39  HYDROGEN    -28.16    OXYGENHEMACONC
MATERIAL         74.               19.25                              TUNGSTEN
MATERIAL                             1.7                              GRAPHITE
COMPOUND          1.    CARBON     3.E-8   LITHIUM     3.E-6     BORONGRAPHITE
COMPOUND       5.E-7    SODIUM     2.E-7  MAGNESIU   1.4E-05  ALUMINUMGRAPHITE
COMPOUND       2.E-6   SILICON     2.E-6  POTASSIU     6.E-6   CALCIUMGRAPHITE
COMPOUND      3.3E-5  TITANIUM     4.E-5  VANADIUM     3.E-7  CHROMIUMGRAPHITE
COMPOUND       2.E-7  MANGANES    2.6E-5      IRON     3.E-7    COBALTGRAPHITE
COMPOUND       4.E-6    NICKEL     1.E-6    COPPER     6.E-7      ZINCGRAPHITE
COMPOUND       1.E-6      LEAD                                        GRAPHITE
MATERIAL          1.               .0708                              DEU300
MATERIAL          1.               .0708                              DEU87
MATERIAL          8.           0.0013315                              OXY300
MATERIAL          8.           0.0013315                              OXY87
MATERIAL          1.                 .16                            2.D2_16K
MATERIAL                          1.1029                              D2O300K
COMPOUND          2.    DEU300        1.    OXY300                    D2O300K
MATERIAL                          1.1029                              D2O16K
COMPOUND          2.     DEU87        1.     OXY87                    D2O16K
MATERIAL          2.                .145                            4.HELIUM1K
MATERIAL          4.               1.232                            9.BERYL77K
MATERIAL         13.              2.6989                           27.Al20KHI
MATERIAL         13.             1.16934                           27.Al20KLO
MATERIAL                             2.2                              BORACONC
COMPOUND    .0072981   SILICON   .021773  HYDROGEN  .0095656  MAGNESIUBORACONC
COMPOUND    1.681E-5  MANGANES  4.002E-4  ALUMINUM  .0010337      IRONBORACONC
COMPOUND    .0025985   CALCIUM 6.2878E-5    SULFUR  5.979E-6  CHLORINEBORACONC
COMPOUND    9.969E-7    CESIUM  2.138E-5    SODIUM 1.6878E-5  POTASSIUBORACONC
COMPOUND   1.1612E-5  TITANIUM  9.934E-4     BORON  2.053E-5   PHOSPHOBORACONC
COMPOUND    8.718E-7  EUROPIUM  1.768E-6    COBALT   .042266    OXYGENBORACONC
MATERIAL                            1.01                              BORAPOLY
COMPOUND      .32591    CARBON    .65182  HYDROGEN    .02226     BORONBORAPOLY
MATERIAL                       .00120484                              AIR
COMPOUND   -1.248E-4    CARBON  -.755267  NITROGEN  -.231781    OXYGENAIR
COMPOUND   -0.012827     ARGON                                        AIR
MATERIAL                             7.8                              SS316LN
COMPOUND    -0.64145      IRON    -0.185  CHROMIUM   -0.1125    NICKELSS316LN
COMPOUND       -0.02  MANGANES     -0.01   SILICON   -4.5E-4   PHOSPHOSS316LN
COMPOUND      -3.E-4    SULFUR    -3.E-4    CARBON     -0.03  MOLYBDENSS316LN
MATERIAL         26.                 6.8                              IRONLITE
MATERIAL         26.                 6.8                              ILITEMAG
MATERIAL                              8.                              Stainles
COMPOUND        -18.  CHROMIUM  -71.4196      IRON       -8.    NICKELStainles
COMPOUND       -1.32  MANGANES       -1.   SILICON     -.045   PHOSPHOStainles
COMPOUND        -.03    SULFUR      -.08    CARBON    -.0954    COBALTStainles
COMPOUND     -3.6E-4  ANTIMONY   -.00217   ARSENIC    -.0075   NIOBIUMStainles
MATERIAL         48.                8.65                              CADMIUM
MATERIAL         30.               7.133                              ZINC
MATERIAL                            1.42                              SOIL
COMPOUND  -5.1433333  ALUMINUM -2.694E-4   CADMIUM-3.9844444   CALCIUMSOIL
COMPOUND  -8.2288889    CARBON -.0013969    COBALT -.0011412    COPPERSOIL
COMPOUND  -2.6655556      IRON-1.2464444  MAGNESIU   -0.0508  MANGANESSOIL
COMPOUND   -.0037542    NICKEL -.3155556  NITROGEN -.0326778   PHOSPHOSOIL
COMPOUND  -2.1844444  POTASSIU -.6000667    SODIUM   -0.0048      ZINCSOIL
MATERIAL                            7.36                              ENESOLUT
COMPOUND    -89.1483      IRON   -0.8036  MANGANES -0.348575   SILICONENESOLUT
COMPOUND   -0.322275    CARBON   -3.2716    NICKEL -0.993775    COPPERENESOLUT
COMPOUND    -0.24855  ALUMINUM  -4.52482  CHROMIUM -0.015425   PHOSPHOENESOLUT
COMPOUND     -0.0195    SULFUR -0.157175  MOLYBDEN   -0.0566    COBALTENESOLUT
COMPOUND    -0.01065  TITANIUM -0.021075  VANADIUM -0.026875      LEADENESOLUT
COMPOUND     -0.0124       TIN -0.001075     BORON -0.017875   NIOBIUMENESOLUT
MATERIAL         42.               10.22                              MOLYBDEN
MATERIAL         23.                6.11                              VANADIUM
MATERIAL         41.                8.57                              NIOBIUM
MATERIAL                             1.5                              ELASTOM
COMPOUND          5.    CARBON        8.  HYDROGEN                    ELASTOM
MATERIAL                             7.8                              A36STEEL
COMPOUND         -.4    CARBON       -.2    COPPER      -98.      IRONA36STEEL
COMPOUND       -1.03  MANGANES      -.04   PHOSPHO      -.28   SILICONA36STEEL
COMPOUND        -.05    SULFUR                                        A36STEEL
MATERIAL                           7.107                              INGOT
COMPOUND        -.95  ENESOLUT      -.05  CONCRETE                    INGOT
MATERIAL                            2.52                              B4C
COMPOUND          4.     BORON        1.    CARBON                    B4C
MATERIAL                           11.35                              NEWPB
COMPOUND    -99.9915      LEAD    -8.E-4    SILVER    -0.001    COPPERNEWPB
COMPOUND       -.004   BISMUTH    -5.E-4   ARSENIC    -8.E-4  ANTIMONYNEWPB
COMPOUND      -5.E-4       TIN    -4.E-4      ZINC    -5.E-4      IRONNEWPB
MATERIAL         83.               9.747                              BISMUTH
MATERIAL         33.                5.73                              ARSENIC
MATERIAL         51.               6.691                              ANTIMONY
MATERIAL          3.                .534                              LITHIUM
MATERIAL                              1.                              WATER
COMPOUND          2.  HYDROGEN        1.    OXYGEN                    WATER
MATERIAL          2.                .082                            3.He3_1K
LOW-MAT     IRONLITE       26.       -2.      296.                    IRON
LOW-MAT     ILITEMAG       26.       -2.      296.                    IRON
LOW-MAT     BERYL77K        4.        9.       87.                    BERYLLIU
LOW-MAT       CARBON        6.       -3.      296.                    CARBON
LOW-MAT       D2_16K        1.        2.       87.                    DEUTERIU
LOW-MAT       DEU300        1.        2.      296.                    DEUTERIU
LOW-MAT       OXY300        8.       16.      296.                    OXYGEN
LOW-MAT        DEU87        1.        2.       87.                    DEUTERIU
LOW-MAT        OXY87        8.       16.       87.                    OXYGEN
LOW-MAT     HELIUM1K        2.        4.        4.                    HELIUM-4
LOW-MAT      Al20KHI       13.       27.        4.                    ALUMINUM
LOW-MAT      Al20KLO       13.       27.        4.                    ALUMINUM
ASSIGNMA    GRAPHITE  REFLECTO
ASSIGNMA    HELIUM1K      HEII
ASSIGNMA      VACUUM    ISOVAC
ASSIGNMA       NEWPB   TgtShld
ASSIGNMA         AIR    TgtGap
ASSIGNMA    ALUMINUM   TgtSpcr
ASSIGNMA    ALUMINUM   TgtVssl
ASSIGNMA    Stainles   TgtCase
ASSIGNMA      HELIUM  TgtCrypt
ASSIGNMA    TUNGSTEN    Target
ASSIGNMA    TANTALUM   TgtCoat
ASSIGNMA       WATER  TgtWater
ASSIGNMA    A36STEEL    TgtArm
ASSIGNMA       NEWPB  TgtArmPb
ASSIGNMA      VACUUM    TgtVac
ASSIGNMA    BLCKHOLE   BLKHOLE
ASSIGNMA         AIR  CRYOSTAT
ASSIGNMA    ENESOLUT  STSHIELD
ASSIGNMA      D2O16K    SLDD2O
ASSIGNMA     D2O300K       D2O
ASSIGNMA    ALUMINUM     D2OAL
ASSIGNMA     Al20KHI    SD2OAL
ASSIGNMA    Stainles     D2OSS
ASSIGNMA      VACUUM  GUIDEVAC
ASSIGNMA     Al20KHI    BOTTLE
ASSIGNMA       NEWPB  LEADSHLD
ASSIGNMA      COPPER       HEX
ASSIGNMA      He3_1K       HE3
ASSIGNMA    Stainles     GUIDE
ASSIGNMA         AIR       LND
ASSIGNMA         AIR   DoseDet
STOP
